xflr5 v6.47

Plane name :        Plane Name
Polar name :        T2-VLM2-0.5kg-x-0.2m-z-0.0m-Inviscid

   alpha      Beta       CL          CDi        CDv        CD         CY         Cl         Cm         Cn        Cni       QInf        XCP
   -1.900     0.000   0.004985   0.000001   0.000000   0.000001   0.000000   0.000000  -0.061649  -0.000000  -0.000000   78.1700     1.6948
   -1.500     0.000   0.042056  -0.000028   0.000000  -0.000028   0.000000   0.000000  -0.151797  -0.000000  -0.000000   26.9126     0.3601
   -1.400     0.000   0.051324  -0.000039   0.000000  -0.000039   0.000000   0.000000  -0.174348  -0.000000  -0.000000   24.3619     0.3277
   -1.000     0.000   0.088392  -0.000100   0.000000  -0.000100   0.000000  -0.000000  -0.264605  -0.000000  -0.000000   18.5637     0.2660
   -0.900     0.000   0.097659  -0.000120   0.000000  -0.000120   0.000000  -0.000000  -0.287180  -0.000000  -0.000000   17.6610     0.2579
   -0.500     0.000   0.134722  -0.000213   0.000000  -0.000213   0.000000  -0.000000  -0.377518  -0.000000  -0.000000   15.0366     0.2366
   -0.400     0.000   0.143987  -0.000240   0.000000  -0.000240   0.000000  -0.000000  -0.400110  -0.000000  -0.000000   14.5448     0.2330
    0.000     0.000   0.181044  -0.000366   0.000000  -0.000366   0.000000  -0.000000  -0.490501  -0.000000  -0.000000   12.9712     0.2223
    0.100     0.000   0.190307  -0.000401   0.000000  -0.000401   0.000000  -0.000000  -0.513104  -0.000000  -0.000000   12.6515     0.2203
    0.500     0.000   0.227355  -0.000559   0.000000  -0.000559   0.000000  -0.000000  -0.603521  -0.000000  -0.000000   11.5749     0.2138
    0.600     0.000   0.236615  -0.000602   0.000000  -0.000602   0.000000  -0.000000  -0.626126  -0.000000  -0.000000   11.3462     0.2125
    1.000     0.000   0.273652  -0.000792   0.000000  -0.000792   0.000000  -0.000000  -0.716543  -0.000000  -0.000000   10.5505     0.2082
    1.100     0.000   0.282910  -0.000843   0.000000  -0.000843   0.000000  -0.000000  -0.739144  -0.000000  -0.000000   10.3764     0.2073
    1.500     0.000   0.319934  -0.001065   0.000000  -0.001065   0.000000  -0.000000  -0.829531  -0.000000  -0.000000    9.7575     0.2042
    1.600     0.000   0.329188  -0.001124   0.000000  -0.001124   0.000000  -0.000000  -0.852122  -0.000000  -0.000000    9.6194     0.2035
    2.000     0.000   0.366197  -0.001377   0.000000  -0.001377   0.000000  -0.000000  -0.942453  -0.000000  -0.000000    9.1204     0.2012
    2.100     0.000   0.375447  -0.001445   0.000000  -0.001445   0.000000  -0.000000  -0.965026  -0.000000  -0.000000    9.0073     0.2007
    2.500     0.000   0.412439  -0.001730   0.000000  -0.001730   0.000000  -0.000000  -1.055273  -0.000000  -0.000000    8.5939     0.1988
    2.600     0.000   0.421685  -0.001805   0.000000  -0.001805   0.000000  -0.000000  -1.077822  -0.000000  -0.000000    8.4992     0.1984
    3.000     0.000   0.458658  -0.002121   0.000000  -0.002121   0.000000  -0.000000  -1.167957  -0.000000  -0.000000    8.1494     0.1970
    3.100     0.000   0.467899  -0.002204   0.000000  -0.002204   0.000000  -0.000000  -1.190475  -0.000000  -0.000000    8.0685     0.1966
    3.500     0.000   0.504852  -0.002552   0.000000  -0.002552   0.000000  -0.000000  -1.280471  -0.000000  -0.000000    7.7676     0.1955
    3.600     0.000   0.514087  -0.002642   0.000000  -0.002642   0.000000  -0.000000  -1.302951  -0.000000  -0.000000    7.6975     0.1952
    4.000     0.000   0.551017  -0.003021   0.000000  -0.003021   0.000000  -0.000000  -1.392781  -0.000000  -0.000000    7.4351     0.1942
    4.100     0.000   0.560246  -0.003119   0.000000  -0.003119   0.000000  -0.000000  -1.415215  -0.000000  -0.000000    7.3736     0.1940
    4.500     0.000   0.597151  -0.003529   0.000000  -0.003529   0.000000  -0.000000  -1.504852  -0.000000  -0.000000    7.1421     0.1931
    4.600     0.000   0.606374  -0.003635   0.000000  -0.003635   0.000000  -0.000000  -1.527234  -0.000000  -0.000000    7.0876     0.1929
    5.000     0.000   0.643253  -0.004074   0.000000  -0.004074   0.000000  -0.000000  -1.616650  -0.000000  -0.000000    6.8814     0.1922
    5.100     0.000   0.652469  -0.004188   0.000000  -0.004188   0.000000  -0.000000  -1.638973  -0.000000  -0.000000    6.8327     0.1920
    5.500     0.000   0.689318  -0.004658   0.000000  -0.004658   0.000000  -0.000000  -1.728141  -0.000000  -0.000000    6.6475     0.1914
    5.600     0.000   0.698526  -0.004779   0.000000  -0.004779   0.000000  -0.000000  -1.750399  -0.000000  -0.000000    6.6036     0.1912
    6.000     0.000   0.735345  -0.005279   0.000000  -0.005279   0.000000  -0.000000  -1.839291  -0.000000  -0.000000    6.4361     0.1907
    6.100     0.000   0.744545  -0.005407   0.000000  -0.005407   0.000000  -0.000000  -1.861477  -0.000000  -0.000000    6.3962     0.1905
    6.500     0.000   0.781331  -0.005936   0.000000  -0.005936   0.000000  -0.000000  -1.950067  -0.000000  -0.000000    6.2439     0.1900
    6.600     0.000   0.790523  -0.006072   0.000000  -0.006072   0.000000  -0.000000  -1.972174  -0.000000  -0.000000    6.2075     0.1899
    7.000     0.000   0.827274  -0.006630   0.000000  -0.006630   0.000000  -0.000000  -2.060434  -0.000000  -0.000000    6.0680     0.1895
    7.100     0.000   0.836457  -0.006774   0.000000  -0.006774   0.000000  -0.000000  -2.082455  -0.000000  -0.000000    6.0346     0.1894
    7.500     0.000   0.873171  -0.007360   0.000000  -0.007360   0.000000  -0.000000  -2.170359  -0.000000  -0.000000    5.9064     0.1890
    7.600     0.000   0.882345  -0.007511   0.000000  -0.007511   0.000000  -0.000000  -2.192288  -0.000000  -0.000000    5.8756     0.1889
    8.000     0.000   0.919019  -0.008126   0.000000  -0.008126   0.000000  -0.000000  -2.279808  -0.000000  -0.000000    5.7572     0.1885
    8.100     0.000   0.928183  -0.008283   0.000000  -0.008283   0.000000  -0.000000  -2.301638  -0.000000  -0.000000    5.7287     0.1884
    8.500     0.000   0.964817  -0.008926   0.000000  -0.008926   0.000000  -0.000000  -2.388749  -0.000000  -0.000000    5.6189     0.1881
    8.600     0.000   0.973970  -0.009090   0.000000  -0.009090   0.000000  -0.000000  -2.410473  -0.000000  -0.000000    5.5924     0.1880
    9.000     0.000   1.010561  -0.009761   0.000000  -0.009761   0.000000  -0.000000  -2.497148  -0.000000  -0.000000    5.4902     0.1877
    9.100     0.000   1.019703  -0.009932   0.000000  -0.009932   0.000000  -0.000000  -2.518759  -0.000000  -0.000000    5.4655     0.1876
    9.500     0.000   1.056249  -0.010629   0.000000  -0.010629   0.000000  -0.000000  -2.604971  -0.000000  -0.000000    5.3702     0.1873
    9.600     0.000   1.065379  -0.010807   0.000000  -0.010807   0.000000  -0.000000  -2.626464  -0.000000  -0.000000    5.3471     0.1873
   10.000     0.000   1.101878  -0.011531   0.000000  -0.011531   0.000000  -0.000000  -2.712187  -0.000000  -0.000000    5.2578     0.1870
   10.100     0.000   1.110996  -0.011715   0.000000  -0.011715   0.000000  -0.000000  -2.733554  -0.000000  -0.000000    5.2362     0.1869
   10.500     0.000   1.147446  -0.012465   0.000000  -0.012465   0.000000  -0.000000  -2.818762  -0.000000  -0.000000    5.1523     0.1867
   10.600     0.000   1.156552  -0.012655   0.000000  -0.012655   0.000000  -0.000000  -2.839997  -0.000000  -0.000000    5.1320     0.1866
   11.000     0.000   1.192950  -0.013430   0.000000  -0.013430   0.000000  -0.000000  -2.924663  -0.000000  -0.000000    5.0531     0.1864
   11.100     0.000   1.202042  -0.013627   0.000000  -0.013627   0.000000  -0.000000  -2.945760  -0.000000  -0.000000    5.0340     0.1863
   11.500     0.000   1.238387  -0.014427   0.000000  -0.014427   0.000000  -0.000000  -3.029860  -0.000000  -0.000000    4.9596     0.1861
   11.600     0.000   1.247466  -0.014630   0.000000  -0.014630   0.000000  -0.000000  -3.050812  -0.000000  -0.000000    4.9415     0.1861
   12.000     0.000   1.283755  -0.015454   0.000000  -0.015454   0.000000  -0.000000  -3.134319  -0.000000  -0.000000    4.8711     0.1859
   12.100     0.000   1.292820  -0.015663   0.000000  -0.015663   0.000000  -0.000000  -3.155120  -0.000000  -0.000000    4.8540     0.1858
   12.500     0.000   1.329052  -0.016511   0.000000  -0.016511   0.000000  -0.000000  -3.238009  -0.000000  -0.000000    4.7874     0.1856
   12.600     0.000   1.338102  -0.016726   0.000000  -0.016726   0.000000  -0.000000  -3.258652  -0.000000  -0.000000    4.7712     0.1856
   13.000     0.000   1.374273  -0.017596   0.000000  -0.017596   0.000000  -0.000000  -3.340899  -0.000000  -0.000000    4.7080     0.1854
   13.100     0.000   1.383309  -0.017817   0.000000  -0.017817   0.000000  -0.000000  -3.361378  -0.000000  -0.000000    4.6926     0.1854
   13.500     0.000   1.419418  -0.018710   0.000000  -0.018710   0.000000  -0.000000  -3.442956  -0.000000  -0.000000    4.6325     0.1852
   13.600     0.000   1.428438  -0.018936   0.000000  -0.018936   0.000000  -0.000000  -3.463265  -0.000000  -0.000000    4.6179     0.1851
   14.000     0.000   1.464483  -0.019850   0.000000  -0.019850   0.000000  -0.000000  -3.544150  -0.000000  -0.000000    4.5607     0.1850
   14.100     0.000   1.473486  -0.020082   0.000000  -0.020082   0.000000  -0.000000  -3.564282  -0.000000  -0.000000    4.5467     0.1849
   14.500     0.000   1.509466  -0.021018   0.000000  -0.021018   0.000000  -0.000000  -3.644450  -0.000000  -0.000000    4.4922     0.1848
   14.600     0.000   1.518452  -0.021254   0.000000  -0.021254   0.000000  -0.000000  -3.664400  -0.000000  -0.000000    4.4789     0.1847
   15.000     0.000   1.554363  -0.022210   0.000000  -0.022210   0.000000  -0.000000  -3.743825  -0.000000  -0.000000    4.4268     0.1846
   15.100     0.000   1.563332  -0.022452   0.000000  -0.022452   0.000000  -0.000000  -3.763587  -0.000000  -0.000000    4.4141     0.1845
   15.500     0.000   1.599172  -0.023427   0.000000  -0.023427   0.000000  -0.000000  -3.842246  -0.000000  -0.000000    4.3644     0.1844
   15.600     0.000   1.608123  -0.023674   0.000000  -0.023674   0.000000  -0.000000  -3.861813  -0.000000  -0.000000    4.3522     0.1844
   16.000     0.000   1.643891  -0.024668   0.000000  -0.024668   0.000000  -0.000000  -3.939682  -0.000000  -0.000000    4.3046     0.1842
   16.100     0.000   1.652824  -0.024919   0.000000  -0.024919   0.000000  -0.000000  -3.959048  -0.000000  -0.000000    4.2930     0.1842
   16.500     0.000   1.688516  -0.025932   0.000000  -0.025932   0.000000  -0.000000  -4.036103  -0.000000  -0.000000    4.2473     0.1841
   16.600     0.000   1.697430  -0.026188   0.000000  -0.026188   0.000000  -0.000000  -4.055263  -0.000000  -0.000000    4.2362     0.1840
   17.000     0.000   1.733046  -0.027218   0.000000  -0.027218   0.000000  -0.000000  -4.131480  -0.000000  -0.000000    4.1924     0.1839
   17.100     0.000   1.741940  -0.027478   0.000000  -0.027478   0.000000  -0.000000  -4.150428  -0.000000  -0.000000    4.1817     0.1839
   17.500     0.000   1.777476  -0.028525   0.000000  -0.028525   0.000000  -0.000000  -4.225785  -0.000000  -0.000000    4.1397     0.1837
   17.600     0.000   1.786350  -0.028788   0.000000  -0.028788   0.000000  -0.000000  -4.244514  -0.000000  -0.000000    4.1294     0.1837
   18.000     0.000   1.821804  -0.029851   0.000000  -0.029851   0.000000  -0.000000  -4.318987  -0.000000  -0.000000    4.0890     0.1836
   18.100     0.000   1.830658  -0.030119   0.000000  -0.030119   0.000000  -0.000000  -4.337493  -0.000000  -0.000000    4.0791     0.1835
   18.500     0.000   1.866028  -0.031197   0.000000  -0.031197   0.000000  -0.000000  -4.411060  -0.000000  -0.000000    4.0403     0.1834
   18.600     0.000   1.874860  -0.031468   0.000000  -0.031468   0.000000  -0.000000  -4.429337  -0.000000  -0.000000    4.0308     0.1834
   19.000     0.000   1.910145  -0.032560   0.000000  -0.032560   0.000000  -0.000000  -4.501975  -0.000000  -0.000000    3.9934     0.1833
   19.100     0.000   1.918955  -0.032835   0.000000  -0.032835   0.000000  -0.000000  -4.520016  -0.000000  -0.000000    3.9842     0.1832
   19.500     0.000   1.954151  -0.033941   0.000000  -0.033941   0.000000  -0.000000  -4.591704  -0.000000  -0.000000    3.9481     0.1831
   19.600     0.000   1.962939  -0.034219   0.000000  -0.034219   0.000000  -0.000000  -4.609505  -0.000000  -0.000000    3.9393     0.1831
   20.000     0.000   1.998044  -0.035337   0.000000  -0.035337   0.000000  -0.000000  -4.680219  -0.000000  -0.000000    3.9045     0.1830
   20.500     0.000   2.041822  -0.036748   0.000000  -0.036748   0.000000  -0.000000  -4.767495  -0.000000  -0.000000    3.8624     0.1828
   21.000     0.000   2.085480  -0.038173   0.000000  -0.038173   0.000000  -0.000000  -4.853504  -0.000000  -0.000000    3.8218     0.1827
   21.500     0.000   2.129017  -0.039611   0.000000  -0.039611   0.000000  -0.000000  -4.938220  -0.000000  -0.000000    3.7825     0.1826
   22.000     0.000   2.172429  -0.041061   0.000000  -0.041061   0.000000  -0.000000  -5.021618  -0.000000  -0.000000    3.7445     0.1824
   22.500     0.000   2.215714  -0.042521   0.000000  -0.042521   0.000000  -0.000000  -5.103671  -0.000000  -0.000000    3.7078     0.1823
   23.000     0.000   2.258868  -0.043990   0.000000  -0.043990   0.000000  -0.000000  -5.184356  -0.000000  -0.000000    3.6722     0.1822
   23.500     0.000   2.301889  -0.045468   0.000000  -0.045468   0.000000  -0.000000  -5.263647  -0.000000  -0.000000    3.6377     0.1820
   24.000     0.000   2.344773  -0.046953   0.000000  -0.046953   0.000000  -0.000000  -5.341519  -0.000000  -0.000000    3.6043     0.1819
   24.500     0.000   2.387518  -0.048443   0.000000  -0.048443   0.000000  -0.000000  -5.417951  -0.000000  -0.000000    3.5719     0.1818
   25.000     0.000   2.430120  -0.049939   0.000000  -0.049939   0.000000  -0.000000  -5.492918  -0.000000  -0.000000    3.5404     0.1817
   25.500     0.000   2.472576  -0.051439   0.000000  -0.051439   0.000000  -0.000000  -5.566397  -0.000000  -0.000000    3.5099     0.1816
   26.000     0.000   2.514884  -0.052941   0.000000  -0.052941   0.000000  -0.000000  -5.638366  -0.000000  -0.000000    3.4803     0.1814
   26.500     0.000   2.557041  -0.054445   0.000000  -0.054445   0.000000  -0.000000  -5.708803  -0.000000  -0.000000    3.4515     0.1813
   27.000     0.000   2.599043  -0.055949   0.000000  -0.055949   0.000000  -0.000000  -5.777686  -0.000000  -0.000000    3.4235     0.1812
   27.500     0.000   2.640886  -0.057452   0.000000  -0.057452   0.000000  -0.000000  -5.844996  -0.000000  -0.000000    3.3962     0.1811
   28.000     0.000   2.682569  -0.058953   0.000000  -0.058953   0.000000  -0.000000  -5.910710  -0.000000  -0.000000    3.3697     0.1810
   28.500     0.000   2.724088  -0.060451   0.000000  -0.060451   0.000000  -0.000000  -5.974810  -0.000000  -0.000000    3.3440     0.1808
   29.000     0.000   2.765440  -0.061945   0.000000  -0.061945   0.000000  -0.000000  -6.037275  -0.000000  -0.000000    3.3189     0.1807
   29.500     0.000   2.806621  -0.063433   0.000000  -0.063433   0.000000  -0.000000  -6.098086  -0.000000  -0.000000    3.2944     0.1806
   30.000     0.000   2.847629  -0.064915   0.000000  -0.064915   0.000000  -0.000000  -6.157226  -0.000000  -0.000000    3.2706     0.1805


